Input file: Assignments/Assignment03/input.txt
Output file: output.txt
Execution mode: parallel

Matrix A:
2.0000 4.0000 6.0000 
1.0000 2.0000 3.0000 
3.0000 6.0000 9.0000 

Error: Matrix is singular, cannot perform decomposition.
